*SPEF "ieee 1481-1999"
*DESIGN "kws_wrapper"
*DATE "11:11:11 Fri 11 11, 1111"
*VENDOR "OpenRCX"
*PROGRAM "Parallel Extraction"
*VERSION "1.0"
*DESIGN_FLOW "NAME_SCOPE LOCAL" "PIN_CAP NONE"
*DIVIDER /
*DELIMITER :
*BUS_DELIMITER []
*T_UNIT 1 NS
*C_UNIT 1 PF
*R_UNIT 1 OHM
*L_UNIT 1 HENRY

*NAME_MAP
*3 wb_clk_i
*4 wb_rst_i
*5 wbs_ack_o
*6 wbs_adr_i[0]
*7 wbs_adr_i[10]
*8 wbs_adr_i[11]
*9 wbs_adr_i[12]
*10 wbs_adr_i[13]
*11 wbs_adr_i[14]
*12 wbs_adr_i[15]
*13 wbs_adr_i[16]
*14 wbs_adr_i[17]
*15 wbs_adr_i[18]
*16 wbs_adr_i[19]
*17 wbs_adr_i[1]
*18 wbs_adr_i[20]
*19 wbs_adr_i[21]
*20 wbs_adr_i[22]
*21 wbs_adr_i[23]
*22 wbs_adr_i[24]
*23 wbs_adr_i[25]
*24 wbs_adr_i[26]
*25 wbs_adr_i[27]
*26 wbs_adr_i[28]
*27 wbs_adr_i[29]
*28 wbs_adr_i[2]
*29 wbs_adr_i[30]
*30 wbs_adr_i[31]
*31 wbs_adr_i[3]
*32 wbs_adr_i[4]
*33 wbs_adr_i[5]
*34 wbs_adr_i[6]
*35 wbs_adr_i[7]
*36 wbs_adr_i[8]
*37 wbs_adr_i[9]
*38 wbs_cyc_i
*39 wbs_dat_i[0]
*40 wbs_dat_i[10]
*41 wbs_dat_i[11]
*42 wbs_dat_i[12]
*43 wbs_dat_i[13]
*44 wbs_dat_i[14]
*45 wbs_dat_i[15]
*46 wbs_dat_i[16]
*47 wbs_dat_i[17]
*48 wbs_dat_i[18]
*49 wbs_dat_i[19]
*50 wbs_dat_i[1]
*51 wbs_dat_i[20]
*52 wbs_dat_i[21]
*53 wbs_dat_i[22]
*54 wbs_dat_i[23]
*55 wbs_dat_i[24]
*56 wbs_dat_i[25]
*57 wbs_dat_i[26]
*58 wbs_dat_i[27]
*59 wbs_dat_i[28]
*60 wbs_dat_i[29]
*61 wbs_dat_i[2]
*62 wbs_dat_i[30]
*63 wbs_dat_i[31]
*64 wbs_dat_i[3]
*65 wbs_dat_i[4]
*66 wbs_dat_i[5]
*67 wbs_dat_i[6]
*68 wbs_dat_i[7]
*69 wbs_dat_i[8]
*70 wbs_dat_i[9]
*71 wbs_dat_o[0]
*72 wbs_dat_o[10]
*73 wbs_dat_o[11]
*74 wbs_dat_o[12]
*75 wbs_dat_o[13]
*76 wbs_dat_o[14]
*77 wbs_dat_o[15]
*78 wbs_dat_o[16]
*79 wbs_dat_o[17]
*80 wbs_dat_o[18]
*81 wbs_dat_o[19]
*82 wbs_dat_o[1]
*83 wbs_dat_o[20]
*84 wbs_dat_o[21]
*85 wbs_dat_o[22]
*86 wbs_dat_o[23]
*87 wbs_dat_o[24]
*88 wbs_dat_o[25]
*89 wbs_dat_o[26]
*90 wbs_dat_o[27]
*91 wbs_dat_o[28]
*92 wbs_dat_o[29]
*93 wbs_dat_o[2]
*94 wbs_dat_o[30]
*95 net59
*96 wbs_dat_o[3]
*97 wbs_dat_o[4]
*98 wbs_dat_o[5]
*99 wbs_dat_o[6]
*100 wbs_dat_o[7]
*101 wbs_dat_o[8]
*102 wbs_dat_o[9]
*103 wbs_sel_i[0]
*104 wbs_sel_i[1]
*105 wbs_sel_i[2]
*106 wbs_sel_i[3]
*107 wbs_stb_i
*108 wbs_we_i
*109 _0000_
*110 _0001_
*111 _0002_
*112 _0003_
*113 _0004_
*114 _0005_
*115 _0006_
*116 _0007_
*117 _0008_
*118 _0009_
*119 _0010_
*120 _0011_
*121 _0012_
*122 _0013_
*123 _0014_
*124 _0015_
*125 _0016_
*126 _0017_
*127 _0018_
*128 _0019_
*129 _0020_
*130 _0021_
*131 _0022_
*132 _0023_
*133 _0024_
*134 _0025_
*135 _0026_
*136 _0027_
*137 _0028_
*138 _0029_
*139 _0030_
*140 _0031_
*141 _0032_
*142 _0033_
*143 _0034_
*144 _0035_
*145 _0036_
*146 _0037_
*147 _0038_
*148 _0039_
*149 _0040_
*150 _0041_
*151 _0042_
*152 _0043_
*153 _0044_
*154 _0045_
*155 _0046_
*156 _0047_
*157 _0048_
*158 _0049_
*159 _0050_
*160 _0051_
*161 _0052_
*162 _0053_
*163 _0054_
*164 _0055_
*165 _0056_
*166 _0057_
*167 _0058_
*168 _0059_
*169 _0060_
*170 _0061_
*171 _0062_
*172 _0063_
*173 _0064_
*174 _0065_
*175 _0066_
*176 _0067_
*177 _0068_
*178 _0069_
*179 _0070_
*180 _0071_
*181 _0072_
*182 _0073_
*183 _0074_
*184 _0075_
*185 _0076_
*186 _0077_
*187 _0078_
*188 _0079_
*189 _0080_
*190 _0081_
*191 _0082_
*192 _0083_
*193 _0084_
*194 _0085_
*195 _0086_
*196 _0087_
*197 _0088_
*198 _0089_
*199 _0090_
*200 _0091_
*201 _0092_
*202 _0093_
*203 _0094_
*204 _0095_
*205 _0096_
*206 _0097_
*207 _0098_
*208 _0099_
*209 _0100_
*210 _0101_
*211 _0102_
*212 _0103_
*213 _0104_
*214 _0105_
*215 _0106_
*216 _0107_
*217 _0108_
*218 _0109_
*219 _0110_
*220 _0111_
*221 _0112_
*222 _0113_
*223 _0114_
*224 _0115_
*225 _0116_
*226 _0117_
*227 _0118_
*228 _0119_
*229 _0120_
*230 _0121_
*231 _0122_
*232 _0123_
*233 _0124_
*234 _0125_
*235 _0126_
*236 _0127_
*237 _0128_
*238 _0129_
*239 _0130_
*240 _0131_
*241 _0132_
*242 _0133_
*243 _0134_
*244 _0135_
*245 _0136_
*246 _0137_
*247 _0138_
*248 _0139_
*249 _0140_
*250 _0141_
*251 _0142_
*252 _0143_
*253 _0144_
*254 _0145_
*255 _0146_
*256 _0147_
*257 _0148_
*258 _0149_
*259 _0150_
*260 _0151_
*261 _0152_
*262 _0153_
*263 _0154_
*264 _0155_
*265 _0156_
*266 _0157_
*267 _0158_
*268 _0159_
*269 _0160_
*270 _0161_
*271 _0162_
*272 _0163_
*273 _0164_
*274 _0165_
*275 _0166_
*276 _0167_
*277 _0168_
*278 _0169_
*279 _0170_
*280 _0171_
*281 _0172_
*282 _0173_
*283 _0174_
*284 _0175_
*285 _0176_
*286 _0177_
*287 _0178_
*288 _0179_
*289 _0180_
*290 _0181_
*291 _0182_
*292 _0183_
*293 _0184_
*294 _0185_
*295 _0186_
*296 _0187_
*297 _0188_
*298 _0189_
*299 _0190_
*300 _0191_
*301 _0192_
*302 _0193_
*303 _0194_
*304 _0195_
*305 _0196_
*306 _0197_
*307 _0198_
*308 _0199_
*309 _0200_
*310 _0201_
*311 _0202_
*312 _0203_
*313 _0204_
*314 _0205_
*315 _0206_
*316 _0207_
*317 _0208_
*318 _0209_
*319 _0210_
*320 _0211_
*321 _0212_
*322 _0213_
*323 _0214_
*324 _0215_
*325 _0216_
*326 _0217_
*327 _0218_
*328 _0219_
*329 _0220_
*330 _0221_
*331 _0222_
*332 _0223_
*333 _0224_
*334 _0225_
*335 _0226_
*336 _0227_
*337 _0228_
*338 _0229_
*339 _0230_
*340 _0231_
*341 _0232_
*342 _0233_
*343 _0234_
*344 _0235_
*345 _0236_
*346 _0237_
*347 _0238_
*348 _0239_
*349 _0240_
*350 _0241_
*351 _0242_
*352 _0243_
*353 _0244_
*354 _0245_
*355 _0246_
*356 _0247_
*357 _0248_
*358 _0249_
*359 _0250_
*360 _0251_
*361 _0252_
*362 _0253_
*363 _0254_
*364 _0255_
*365 _0256_
*366 _0257_
*367 _0258_
*368 _0259_
*369 _0260_
*370 _0261_
*371 _0262_
*372 _0263_
*373 _0264_
*374 _0265_
*375 _0266_
*376 _0267_
*377 _0268_
*378 _0269_
*379 _0270_
*380 _0271_
*381 _0272_
*382 _0273_
*383 _0274_
*384 _0275_
*385 _0276_
*386 _0277_
*387 _0278_
*388 _0279_
*389 _0280_
*390 _0281_
*391 _0282_
*392 _0283_
*393 _0284_
*394 _0285_
*395 _0286_
*396 _0287_
*397 _0288_
*398 _0289_
*399 _0290_
*400 _0291_
*401 _0292_
*402 _0293_
*403 _0294_
*404 _0295_
*405 _0296_
*406 _0297_
*407 _0298_
*408 _0299_
*409 _0300_
*410 _0301_
*411 _0302_
*412 _0303_
*413 _0304_
*414 _0305_
*415 _0306_
*416 _0307_
*417 _0308_
*418 _0309_
*419 _0310_
*420 _0311_
*421 _0312_
*422 _0313_
*423 _0314_
*424 _0315_
*425 _0316_
*426 _0317_
*427 _0318_
*428 _0319_
*429 _0320_
*430 _0321_
*431 _0322_
*432 _0323_
*433 _0324_
*434 _0325_
*435 _0326_
*436 _0327_
*437 _0328_
*438 _0329_
*439 _0330_
*440 _0331_
*441 _0332_
*442 _0333_
*443 _0334_
*444 _0335_
*445 _0336_
*446 _0337_
*447 _0338_
*448 _0339_
*449 _0340_
*450 _0341_
*451 _0342_
*452 _0343_
*453 _0344_
*454 _0345_
*455 _0346_
*456 _0347_
*457 _0348_
*458 _0349_
*459 _0350_
*460 _0351_
*461 _0352_
*462 _0353_
*463 _0354_
*464 _0355_
*465 _0356_
*466 _0357_
*467 _0358_
*468 _0359_
*469 _0360_
*470 _0361_
*471 _0362_
*472 _0363_
*473 _0364_
*474 _0365_
*475 _0366_
*476 _0367_
*477 _0368_
*478 _0369_
*479 _0370_
*480 _0371_
*481 _0372_
*482 _0373_
*483 _0374_
*484 _0375_
*485 _0376_
*486 _0377_
*487 _0378_
*488 _0379_
*489 _0380_
*490 _0381_
*491 _0382_
*492 _0383_
*493 _0384_
*494 _0385_
*495 _0386_
*496 _0387_
*497 _0388_
*498 _0389_
*499 _0390_
*500 _0391_
*501 _0392_
*502 _0393_
*503 _0394_
*504 _0395_
*505 _0396_
*506 _0397_
*507 _0398_
*508 _0399_
*509 _0400_
*510 _0401_
*511 _0402_
*512 _0403_
*513 _0404_
*514 _0405_
*515 _0406_
*516 _0407_
*517 _0408_
*518 _0409_
*519 _0410_
*520 _0411_
*521 _0412_
*522 _0413_
*523 _0414_
*524 _0415_
*525 _0416_
*526 _0417_
*527 _0418_
*528 _0419_
*529 _0420_
*530 _0421_
*531 _0422_
*532 _0423_
*533 _0424_
*534 _0425_
*535 _0426_
*536 _0427_
*537 _0428_
*538 _0429_
*539 _0430_
*540 _0431_
*541 _0432_
*542 _0433_
*543 _0434_
*544 _0435_
*545 _0436_
*546 _0437_
*547 _0438_
*548 _0439_
*549 _0440_
*550 _0441_
*551 _0442_
*552 _0443_
*553 _0444_
*554 _0445_
*555 _0446_
*556 _0447_
*557 _0448_
*558 _0449_
*559 _0450_
*560 _0451_
*561 _0452_
*562 _0453_
*563 _0454_
*564 _0455_
*565 _0456_
*566 _0457_
*567 _0458_
*568 _0459_
*569 _0460_
*570 _0461_
*571 _0462_
*572 _0463_
*573 _0464_
*574 _0465_
*575 _0466_
*576 _0467_
*577 _0468_
*578 _0469_
*579 _0470_
*580 _0471_
*581 _0472_
*582 _0473_
*583 _0474_
*584 _0475_
*585 _0476_
*586 _0477_
*587 _0478_
*588 _0479_
*589 _0480_
*590 _0481_
*591 _0482_
*592 _0483_
*593 _0484_
*594 _0485_
*595 _0486_
*596 _0487_
*597 _0488_
*598 _0489_
*599 _0490_
*600 _0491_
*601 _0492_
*602 _0493_
*603 _0494_
*604 _0495_
*605 _0496_
*606 _0497_
*607 _0498_
*608 _0499_
*609 _0500_
*610 _0501_
*611 _0502_
*612 _0503_
*613 _0504_
*614 _0505_
*615 _0506_
*616 _0507_
*617 _0508_
*618 _0509_
*619 _0510_
*620 _0511_
*621 _0512_
*622 _0513_
*623 _0514_
*624 _0515_
*625 _0516_
*626 _0517_
*627 _0518_
*628 _0519_
*629 _0520_
*630 _0521_
*631 _0522_
*632 _0523_
*633 _0524_
*634 _0525_
*635 _0526_
*636 _0527_
*637 _0528_
*638 _0529_
*639 _0530_
*640 _0531_
*641 _0532_
*642 _0533_
*643 _0534_
*644 _0535_
*645 _0536_
*646 _0537_
*647 _0538_
*648 _0539_
*649 _0540_
*650 _0541_
*651 _0542_
*652 _0543_
*653 _0544_
*654 _0545_
*655 _0546_
*656 _0547_
*657 _0548_
*658 _0549_
*659 _0550_
*660 _0551_
*661 _0552_
*662 _0553_
*663 _0554_
*664 _0555_
*665 _0556_
*666 _0557_
*667 _0558_
*668 _0559_
*669 _0560_
*670 _0561_
*671 _0562_
*672 _0563_
*673 _0564_
*674 _0565_
*675 _0566_
*676 _0567_
*677 _0568_
*678 _0569_
*679 _0570_
*680 _0571_
*681 _0572_
*682 _0573_
*683 _0574_
*684 _0575_
*685 _0576_
*686 _0577_
*687 _0578_
*688 _0579_
*689 _0580_
*690 _0581_
*691 _0582_
*692 _0583_
*693 _0584_
*694 _0585_
*695 _0586_
*696 _0587_
*697 _0588_
*698 _0589_
*699 _0590_
*700 _0591_
*701 _0592_
*702 _0593_
*703 _0594_
*704 _0595_
*705 _0596_
*706 _0597_
*707 _0598_
*708 _0599_
*709 _0600_
*710 _0601_
*711 _0602_
*712 _0603_
*713 _0604_
*714 _0605_
*715 _0606_
*716 _0607_
*717 _0608_
*718 _0609_
*719 _0610_
*720 _0611_
*721 _0612_
*722 _0613_
*723 _0614_
*724 _0615_
*725 _0616_
*726 _0617_
*727 _0618_
*728 _0619_
*729 _0620_
*730 _0621_
*731 _0622_
*732 _0623_
*733 _0624_
*734 _0625_
*735 _0626_
*736 _0627_
*737 _0628_
*738 _0629_
*739 _0630_
*740 _0631_
*741 _0632_
*742 _0633_
*743 _0634_
*744 _0635_
*745 _0636_
*746 _0637_
*747 _0638_
*748 _0639_
*749 _0640_
*750 _0641_
*751 _0642_
*752 _0643_
*753 _0644_
*754 _0645_
*755 _0646_
*756 _0647_
*757 _0648_
*758 _0649_
*759 _0650_
*760 _0651_
*761 _0652_
*762 _0653_
*763 _0654_
*764 _0655_
*765 _0656_
*766 _0657_
*767 _0658_
*768 _0659_
*769 _0660_
*770 _0661_
*771 _0662_
*772 _0663_
*773 _0664_
*774 _0665_
*775 _0666_
*776 _0667_
*777 _0668_
*778 _0669_
*779 _0670_
*780 _0671_
*781 _0672_
*782 _0673_
*783 _0674_
*784 _0675_
*785 _0676_
*786 _0677_
*787 _0678_
*788 _0679_
*789 _0680_
*790 _0681_
*791 _0682_
*792 _0683_
*793 _0684_
*794 _0685_
*795 _0686_
*796 _0687_
*797 _0688_
*798 _0689_
*799 _0690_
*800 _0691_
*801 _0692_
*802 _0693_
*803 _0694_
*804 _0695_
*805 _0696_
*806 _0697_
*807 _0698_
*808 _0699_
*809 _0700_
*810 _0701_
*811 _0702_
*812 _0703_
*813 _0704_
*814 _0705_
*815 _0706_
*816 _0707_
*817 _0708_
*818 _0709_
*819 _0710_
*820 _0711_
*821 _0712_
*822 _0713_
*823 _0714_
*824 _0715_
*825 _0716_
*826 _0717_
*827 _0718_
*828 _0719_
*829 _0720_
*830 _0721_
*831 _0722_
*832 _0723_
*833 _0724_
*834 _0725_
*835 _0726_
*836 _0727_
*837 _0728_
*838 _0729_
*839 _0730_
*840 _0731_
*841 _0732_
*842 _0733_
*843 _0734_
*844 _0735_
*845 _0736_
*846 _0737_
*847 _0738_
*848 _0739_
*849 _0740_
*850 _0741_
*851 _0742_
*852 _0743_
*853 _0744_
*854 _0745_
*855 _0746_
*856 _0747_
*857 _0748_
*858 _0749_
*859 _0750_
*860 _0751_
*861 _0752_
*862 _0753_
*863 _0754_
*864 _0755_
*865 _0756_
*866 _0757_
*867 _0758_
*868 _0759_
*869 _0760_
*870 _0761_
*871 _0762_
*872 _0763_
*873 _0764_
*874 _0765_
*875 _0766_
*876 _0767_
*877 _0768_
*878 _0769_
*879 _0770_
*880 _0771_
*881 _0772_
*882 _0773_
*883 _0774_
*884 _0775_
*885 _0776_
*886 _0777_
*887 _0778_
*888 _0779_
*889 _0780_
*890 _0781_
*891 _0782_
*892 _0783_
*893 _0784_
*894 _0785_
*895 _0786_
*896 _0787_
*897 _0788_
*898 _0789_
*899 _0790_
*900 _0791_
*901 _0792_
*902 _0793_
*903 _0794_
*904 _0795_
*905 _0796_
*906 _0797_
*907 _0798_
*908 _0799_
*909 _0800_
*910 _0801_
*911 _0802_
*912 _0803_
*913 _0804_
*914 _0805_
*915 _0806_
*916 _0807_
*917 _0808_
*918 _0809_
*919 _0810_
*920 _0811_
*921 _0812_
*922 _0813_
*923 _0814_
*924 _0815_
*925 _0816_
*926 _0817_
*927 _0818_
*928 _0819_
*929 _0820_
*930 _0821_
*931 _0822_
*932 _0823_
*933 _0824_
*934 _0825_
*935 _0826_
*936 _0827_
*937 _0828_
*938 _0829_
*939 _0830_
*940 _0831_
*941 _0832_
*942 _0833_
*943 _0834_
*944 _0835_
*945 _0836_
*946 _0837_
*947 _0838_
*948 _0839_
*949 _0840_
*950 _0841_
*951 _0842_
*952 _0843_
*953 _0844_
*954 _0845_
*955 _0846_
*956 _0847_
*957 _0848_
*958 _0849_
*959 _0850_
*960 _0851_
*961 _0852_
*962 _0853_
*963 _0854_
*964 _0855_
*965 _0856_
*966 _0857_
*967 _0858_
*968 _0859_
*969 _0860_
*970 _0861_
*971 _0862_
*972 _0863_
*973 _0864_
*974 _0865_
*975 _0866_
*976 _0867_
*977 _0868_
*978 _0869_
*979 _0870_
*980 _0871_
*981 _0872_
*982 _0873_
*983 _0874_
*984 _0875_
*985 _0876_
*986 _0877_
*987 _0878_
*988 _0879_
*989 _0880_
*990 _0881_
*991 _0882_
*992 _0883_
*993 _0884_
*994 _0885_
*995 _0886_
*996 _0887_
*997 _0888_
*998 _0889_
*999 _0890_
*1000 _0891_
*1001 _0892_
*1002 _0893_
*1003 _0894_
*1004 _0895_
*1005 _0896_
*1006 _0897_
*1007 _0898_
*1008 _0899_
*1009 _0900_
*1010 _0901_
*1011 _0902_
*1012 _0903_
*1013 _0904_
*1014 _0905_
*1015 _0906_
*1016 _0907_
*1017 _0908_
*1018 _0909_
*1019 _0910_
*1020 _0911_
*1021 _0912_
*1022 _0913_
*1023 _0914_
*1024 _0915_
*1025 _0916_
*1026 _0917_
*1027 _0918_
*1028 _0919_
*1029 _0920_
*1030 _0921_
*1031 _0922_
*1032 _0923_
*1033 _0924_
*1034 _0925_
*1035 _0926_
*1036 _0927_
*1037 _0928_
*1038 _0929_
*1039 _0930_
*1040 _0931_
*1041 _0932_
*1042 _0933_
*1043 _0934_
*1044 _0935_
*1045 _0936_
*1046 _0937_
*1047 _0938_
*1048 _0939_
*1049 _0940_
*1050 _0941_
*1051 _0942_
*1052 _0943_
*1053 _0944_
*1054 _0945_
*1055 _0946_
*1056 _0947_
*1057 _0948_
*1058 _0949_
*1059 _0950_
*1060 _0951_
*1061 _0952_
*1062 _0953_
*1063 _0954_
*1064 _0955_
*1065 _0956_
*1066 _0957_
*1067 _0958_
*1068 _0959_
*1069 _0960_
*1070 _0961_
*1071 _0962_
*1072 _0963_
*1073 _0964_
*1074 _0965_
*1075 _0966_
*1076 _0967_
*1077 _0968_
*1078 _0969_
*1079 _0970_
*1080 _0971_
*1081 _0972_
*1082 _0973_
*1083 _0974_
*1084 _0975_
*1085 _0976_
*1086 _0977_
*1087 _0978_
*1088 _0979_
*1089 _0980_
*1090 _0981_
*1091 _0982_
*1092 _0983_
*1093 _0984_
*1094 _0985_
*1095 _0986_
*1096 _0987_
*1097 _0988_
*1098 _0989_
*1099 _0990_
*1100 _0991_
*1101 _0992_
*1102 _0993_
*1103 _0994_
*1104 _0995_
*1105 _0996_
*1106 _0997_
*1107 _0998_
*1108 _0999_
*1109 _1000_
*1110 _1001_
*1111 _1002_
*1112 _1003_
*1113 _1004_
*1114 _1005_
*1115 _1006_
*1116 _1007_
*1117 _1008_
*1118 _1009_
*1119 _1010_
*1120 _1011_
*1121 _1012_
*1122 _1013_
*1123 _1014_
*1124 _1015_
*1125 _1016_
*1126 _1017_
*1127 _1018_
*1128 _1019_
*1129 _1020_
*1130 _1021_
*1131 _1022_
*1132 _1023_
*1133 _1024_
*1134 _1025_
*1135 _1026_
*1136 _1027_
*1137 _1028_
*1138 _1029_
*1139 _1030_
*1140 _1031_
*1141 _1032_
*1142 _1033_
*1143 _1034_
*1144 _1035_
*1145 _1036_
*1146 _1037_
*1147 _1038_
*1148 _1039_
*1149 _1040_
*1150 _1041_
*1151 _1042_
*1152 _1043_
*1153 _1044_
*1154 _1045_
*1155 _1046_
*1156 _1047_
*1157 _1048_
*1158 _1049_
*1159 _1050_
*1160 _1051_
*1161 _1052_
*1162 _1053_
*1163 _1054_
*1164 _1055_
*1165 _1056_
*1166 _1057_
*1167 _1058_
*1168 _1059_
*1169 _1060_
*1170 _1061_
*1171 _1062_
*1172 _1063_
*1173 _1064_
*1174 _1065_
*1175 _1066_
*1176 _1067_
*1177 _1068_
*1178 _1069_
*1179 _1070_
*1180 _1071_
*1181 _1072_
*1182 _1073_
*1183 _1074_
*1184 _1075_
*1185 _1076_
*1186 _1077_
*1187 _1078_
*1188 _1079_
*1189 _1080_
*1190 _1081_
*1191 _1082_
*1192 _1083_
*1193 _1084_
*1194 _1085_
*1195 _1086_
*1196 _1087_
*1197 _1088_
*1198 _1089_
*1199 _1090_
*1200 _1091_
*1201 _1092_
*1202 _1093_
*1203 _1094_
*1204 _1095_
*1205 _1096_
*1206 _1097_
*1207 _1098_
*1208 _1099_
*1209 _1100_
*1210 _1101_
*1211 _1102_
*1212 _1103_
*1213 _1104_
*1214 _1105_
*1215 _1106_
*1216 _1107_
*1217 _1108_
*1218 _1109_
*1219 _1110_
*1220 _1111_
*1221 _1112_
*1222 _1113_
*1223 _1114_
*1224 _1115_
*1225 _1116_
*1226 _1117_
*1227 _1118_
*1228 _1119_
*1229 _1120_
*1230 _1121_
*1231 _1122_
*1232 _1123_
*1233 _1124_
*1234 _1125_
*1235 _1126_
*1236 _1127_
*1237 _1128_
*1238 _1129_
*1239 _1130_
*1240 _1131_
*1241 _1132_
*1242 _1133_
*1243 _1134_
*1244 _1135_
*1245 _1136_
*1246 _1137_
*1247 _1138_
*1248 _1139_
*1249 _1140_
*1250 _1141_
*1251 _1142_
*1252 _1143_
*1253 _1144_
*1254 _1145_
*1255 _1146_
*1256 _1147_
*1257 _1148_
*1258 _1149_
*1259 _1150_
*1260 _1151_
*1261 _1152_
*1262 _1153_
*1263 _1154_
*1264 _1155_
*1265 _1156_
*1266 _1157_
*1267 _1158_
*1268 _1159_
*1269 _1160_
*1270 _1161_
*1271 _1162_
*1272 _1163_
*1273 _1164_
*1274 _1165_
*1275 _1166_
*1276 _1167_
*1277 _1168_
*1278 _1169_
*1279 _1170_
*1280 _1171_
*1281 _1172_
*1282 _1173_
*1283 _1174_
*1284 _1175_
*1285 _1176_
*1286 _1177_
*1287 _1178_
*1288 _1179_
*1289 _1180_
*1290 _1181_
*1291 _1182_
*1292 _1183_
*1293 _1184_
*1294 _1185_
*1295 _1186_
*1296 _1187_
*1297 _1188_
*1298 _1189_
*1299 _1190_
*1300 _1191_
*1301 _1192_
*1302 _1193_
*1303 _1194_
*1304 _1195_
*1305 _1196_
*1306 _1197_
*1307 _1198_
*1308 _1199_
*1309 _1200_
*1310 _1201_
*1311 _1202_
*1312 _1203_
*1313 _1204_
*1314 _1205_
*1315 _1206_
*1316 _1207_
*1317 _1208_
*1318 _1209_
*1319 _1210_
*1320 _1211_
*1321 _1212_
*1322 _1213_
*1323 _1214_
*1324 _1215_
*1325 _1216_
*1326 _1217_
*1327 _1218_
*1328 _1219_
*1329 _1220_
*1330 _1221_
*1331 _1222_
*1332 _1223_
*1333 _1224_
*1334 _1225_
*1335 _1226_
*1336 _1227_
*1337 _1228_
*1338 _1229_
*1339 _1230_
*1340 _1231_
*1341 _1232_
*1342 _1233_
*1343 _1234_
*1344 _1235_
*1345 _1236_
*1346 _1237_
*1347 _1238_
*1348 _1239_
*1349 _1240_
*1350 _1241_
*1351 _1242_
*1352 _1243_
*1353 _1244_
*1354 _1245_
*1355 _1246_
*1356 _1247_
*1357 _1248_
*1358 _1249_
*1359 _1250_
*1360 _1251_
*1361 _1252_
*1362 _1253_
*1363 _1254_
*1364 _1255_
*1365 _1256_
*1366 _1257_
*1367 _1258_
*1368 _1259_
*1369 _1260_
*1370 _1261_
*1371 _1262_
*1372 _1263_
*1373 _1264_
*1374 _1265_
*1375 _1266_
*1376 _1267_
*1377 _1268_
*1378 _1269_
*1379 _1270_
*1380 _1271_
*1381 _1272_
*1382 _1273_
*1383 _1274_
*1384 _1275_
*1385 _1276_
*1386 _1277_
*1387 _1278_
*1388 _1279_
*1389 _1280_
*1390 _1281_
*1391 _1282_
*1392 _1283_
*1393 _1284_
*1394 _1285_
*1395 _1286_
*1396 _1287_
*1397 _1288_
*1398 _1289_
*1399 _1290_
*1400 _1291_
*1401 _1292_
*1402 _1293_
*1403 _1294_
*1404 _1295_
*1405 _1296_
*1406 _1297_
*1407 _1298_
*1408 _1299_
*1409 _1300_
*1410 _1301_
*1411 _1302_
*1412 _1303_
*1413 _1304_
*1414 _1305_
*1415 _1306_
*1416 _1307_
*1417 _1308_
*1418 _1309_
*1419 _1310_
*1420 _1311_
*1421 _1312_
*1422 _1313_
*1423 _1314_
*1424 _1315_
*1425 _1316_
*1426 _1317_
*1427 _1318_
*1428 _1319_
*1429 _1320_
*1430 _1321_
*1431 _1322_
*1432 _1323_
*1433 _1324_
*1434 _1325_
*1435 _1326_
*1436 _1327_
*1437 _1328_
*1438 _1329_
*1439 _1330_
*1440 _1331_
*1441 _1332_
*1442 _1333_
*1443 _1334_
*1444 _1335_
*1445 _1336_
*1446 _1337_
*1447 _1338_
*1448 _1339_
*1449 _1340_
*1450 _1341_
*1451 _1342_
*1452 _1343_
*1453 _1344_
*1454 _1345_
*1455 _1346_
*1456 _1347_
*1457 _1348_
*1458 _1349_
*1459 _1350_
*1460 _1351_
*1461 _1352_
*1462 _1353_
*1463 _1354_
*1464 _1355_
*1465 _1356_
*1466 _1357_
*1467 _1358_
*1468 _1359_
*1469 _1360_
*1470 _1361_
*1471 _1362_
*1472 _1363_
*1473 _1364_
*1474 _1365_
*1475 _1366_
*1476 _1367_
*1477 _1368_
*1478 _1369_
*1479 _1370_
*1480 _1371_
*1481 _1372_
*1482 _1373_
*1483 _1374_
*1484 _1375_
*1485 _1376_
*1486 _1377_
*1487 _1378_
*1488 _1379_
*1489 _1380_
*1490 _1381_
*1491 _1382_
*1492 _1383_
*1493 _1384_
*1494 _1385_
*1495 _1386_
*1496 _1387_
*1497 _1388_
*1498 _1389_
*1499 _1390_
*1500 _1391_
*1501 _1392_
*1502 _1393_
*1503 _1394_
*1504 _1395_
*1505 _1396_
*1506 _1397_
*1507 _1398_
*1508 _1399_
*1509 _1400_
*1510 _1401_
*1511 _1402_
*1512 _1403_
*1513 _1404_
*1514 _1405_
*1515 _1406_
*1516 _1407_
*1517 _1408_
*1518 _1409_
*1519 _1410_
*1520 _1411_
*1521 _1412_
*1522 _1413_
*1523 _1414_
*1524 _1415_
*1525 _1416_
*1526 _1417_
*1527 _1418_
*1528 _1419_
*1529 _1420_
*1530 _1421_
*1531 _1422_
*1532 _1423_
*1533 _1424_
*1534 _1425_
*1535 _1426_
*1536 _1427_
*1537 _1428_
*1538 _1429_
*1539 _1430_
*1540 _1431_
*1541 _1432_
*1542 _1433_
*1543 _1434_
*1544 _1435_
*1545 _1436_
*1546 _1437_
*1547 _1438_
*1548 _1439_
*1549 _1440_
*1550 _1441_
*1551 _1442_
*1552 _1443_
*1553 _1444_
*1554 _1445_
*1555 _1446_
*1556 _1447_
*1557 _1448_
*1558 _1449_
*1559 _1450_
*1560 _1451_
*1561 _1452_
*1562 _1453_
*1563 _1454_
*1564 _1455_
*1565 _1456_
*1566 _1457_
*1567 _1458_
*1568 _1459_
*1569 _1460_
*1570 _1461_
*1571 _1462_
*1572 _1463_
*1573 _1464_
*1574 _1465_
*1575 _1466_
*1576 _1467_
*1577 _1468_
*1578 _1469_
*1579 _1470_
*1580 _1471_
*1581 _1472_
*1582 _1473_
*1583 _1474_
*1584 _1475_
*1585 _1476_
*1586 _1477_
*1587 _1478_
*1588 _1479_
*1589 _1480_
*1590 _1481_
*1591 _1482_
*1592 _1483_
*1593 _1484_
*1594 _1485_
*1595 _1486_
*1596 _1487_
*1597 _1488_
*1598 _1489_
*1599 _1490_
*1600 _1491_
*1601 _1492_
*1602 _1493_
*1603 _1494_
*1604 _1495_
*1605 _1496_
*1606 _1497_
*1607 _1498_
*1608 _1499_
*1609 _1500_
*1610 _1501_
*1611 _1502_
*1612 _1503_
*1613 _1504_
*1614 _1505_
*1615 _1506_
*1616 _1507_
*1617 _1508_
*1618 _1509_
*1619 _1510_
*1620 _1511_
*1621 _1512_
*1622 _1513_
*1623 _1514_
*1624 _1515_
*1625 _1516_
*1626 _1517_
*1627 _1518_
*1628 _1519_
*1629 _1520_
*1630 _1521_
*1631 _1522_
*1632 _1523_
*1633 _1524_
*1634 _1525_
*1635 _1526_
*1636 _1527_
*1637 _1528_
*1638 _1529_
*1639 _1530_
*1640 _1531_
*1641 _1532_
*1642 clknet_0_wb_clk_i
*1643 clknet_2_0__leaf_wb_clk_i
*1644 clknet_2_1__leaf_wb_clk_i
*1645 clknet_2_2__leaf_wb_clk_i
*1646 clknet_2_3__leaf_wb_clk_i
*1647 fsm_inst\.batch_norm_en
*1648 fsm_inst\.cnn_en
*1649 fsm_inst\.current_state\[0\]
*1650 fsm_inst\.current_state\[1\]
*1651 fsm_inst\.current_state\[2\]
*1652 fsm_inst\.done
*1653 fsm_inst\.next_state\[0\]
*1654 fsm_inst\.next_state\[1\]
*1655 fsm_inst\.next_state\[2\]
*1656 net1
*1657 net10
*1658 net11
*1659 net12
*1660 net13
*1661 net14
*1662 net15
*1663 net16
*1664 net17
*1665 net18
*1666 net19
*1667 net2
*1668 net20
*1669 net21
*1670 net22
*1671 net23
*1672 net24
*1673 net25
*1674 net26
*1675 net27
*1676 net28
*1677 net29
*1678 net3
*1679 net30
*1680 net31
*1681 net32
*1682 net33
*1683 net34
*1684 net35
*1685 net36
*1686 net37
*1687 net38
*1688 net39
*1689 net4
*1690 net40
*1691 net41
*1692 net42
*1693 net43
*1694 net44
*1695 net45
*1696 net46
*1697 net47
*1698 net48
*1699 net49
*1700 net5
*1701 net50
*1702 net51
*1703 net52
*1704 net53
*1705 net54
*1706 net55
*1707 net56
*1708 net57
*1709 net58
*1710 net6
*1711 net60
*1712 net61
*1713 net62
*1714 net63
*1715 net64
*1716 net65
*1717 net66
*1718 net67
*1719 net68
*1720 net69
*1721 net7
*1722 net70
*1723 net71
*1724 net72
*1725 net73
*1726 net74
*1727 net75
*1728 net76
*1729 net77
*1730 net78
*1731 net79
*1732 net8
*1733 net80
*1734 net81
*1735 net82
*1736 net83
*1737 net84
*1738 net85
*1739 net86
*1740 net87
*1741 net88
*1742 net9
*1743 weights_inst\.data_out\[0\]
*1744 weights_inst\.data_out\[10\]
*1745 weights_inst\.data_out\[11\]
*1746 weights_inst\.data_out\[12\]
*1747 weights_inst\.data_out\[13\]
*1748 weights_inst\.data_out\[14\]
*1749 weights_inst\.data_out\[15\]
*1750 weights_inst\.data_out\[16\]
*1751 weights_inst\.data_out\[17\]
*1752 weights_inst\.data_out\[18\]
*1753 weights_inst\.data_out\[19\]
*1754 weights_inst\.data_out\[1\]
*1755 weights_inst\.data_out\[20\]
*1756 weights_inst\.data_out\[21\]
*1757 weights_inst\.data_out\[22\]
*1758 weights_inst\.data_out\[23\]
*1759 weights_inst\.data_out\[2\]
*1760 weights_inst\.data_out\[3\]
*1761 weights_inst\.data_out\[4\]
*1762 weights_inst\.data_out\[5\]
*1763 weights_inst\.data_out\[6\]
*1764 weights_inst\.data_out\[7\]
*1765 weights_inst\.data_out\[8\]
*1766 weights_inst\.data_out\[9\]
*1767 ANTENNA_1
*1768 ANTENNA_10
*1769 ANTENNA_11
*1770 ANTENNA_12
*1771 ANTENNA_13
*1772 ANTENNA_14
*1773 ANTENNA_15
*1774 ANTENNA_16
*1775 ANTENNA_17
*1776 ANTENNA_18
*1777 ANTENNA_19
*1778 ANTENNA_2
*1779 ANTENNA_20
*1780 ANTENNA_21
*1781 ANTENNA_22
*1782 ANTENNA_23
*1783 ANTENNA_24
*1784 ANTENNA_25
*1785 ANTENNA_26
*1786 ANTENNA_27
*1787 ANTENNA_28
*1788 ANTENNA_29
*1789 ANTENNA_3
*1790 ANTENNA_30
*1791 ANTENNA_31
*1792 ANTENNA_32
*1793 ANTENNA_33
*1794 ANTENNA_34
*1795 ANTENNA_35
*1796 ANTENNA_36
*1797 ANTENNA_37
*1798 ANTENNA_38
*1799 ANTENNA_39
*1800 ANTENNA_4
*1801 ANTENNA_40
*1802 ANTENNA_41
*1803 ANTENNA_42
*1804 ANTENNA_43
*1805 ANTENNA_44
*1806 ANTENNA_45
*1807 ANTENNA_46
*1808 ANTENNA_47
*1809 ANTENNA_48
*1810 ANTENNA_49
*1811 ANTENNA_5
*1812 ANTENNA_50
*1813 ANTENNA_51
*1814 ANTENNA_52
*1815 ANTENNA_53
*1816 ANTENNA_54
*1817 ANTENNA_55
*1818 ANTENNA_56
*1819 ANTENNA_57
*1820 ANTENNA_58
*1821 ANTENNA_59
*1822 ANTENNA_6
*1823 ANTENNA_60
*1824 ANTENNA_61
*1825 ANTENNA_62
*1826 ANTENNA_63
*1827 ANTENNA_64
*1828 ANTENNA_65
*1829 ANTENNA_66
*1830 ANTENNA_67
*1831 ANTENNA_68
*1832 ANTENNA_69
*1833 ANTENNA_7
*1834 ANTENNA_70
*1835 ANTENNA_71
*1836 ANTENNA_72
*1837 ANTENNA_73
*1838 ANTENNA_74
*1839 ANTENNA_75
*1840 ANTENNA_76
*1841 ANTENNA_77
*1842 ANTENNA_78
*1843 ANTENNA_79
*1844 ANTENNA_8
*1845 ANTENNA_80
*1846 ANTENNA_81
*1847 ANTENNA_82
*1848 ANTENNA_83
*1849 ANTENNA_84
*1850 ANTENNA_85
*1851 ANTENNA_86
*1852 ANTENNA_87
*1853 ANTENNA_9
*1854 FILLER_0_0_111
*1855 FILLER_0_0_141
*1856 FILLER_0_0_169
*1857 FILLER_0_0_178
*1858 FILLER_0_0_253
*1859 FILLER_0_0_257
*1860 FILLER_0_0_261
*1861 FILLER_0_0_27
*1862 FILLER_0_0_281
*1863 FILLER_0_0_3
*1864 FILLER_0_0_334
*1865 FILLER_0_0_353
*1866 FILLER_0_0_362
*1867 FILLER_0_0_386
*1868 FILLER_0_0_391
*1869 FILLER_0_0_440
*1870 FILLER_0_0_465
*1871 FILLER_0_0_473
*1872 FILLER_0_0_477
*1873 FILLER_0_0_501
*1874 FILLER_0_0_521
*1875 FILLER_0_0_529
*1876 FILLER_0_0_533
*1877 FILLER_0_0_555
*1878 FILLER_0_0_559
*1879 FILLER_0_0_577
*1880 FILLER_0_0_585
*1881 FILLER_0_0_589
*1882 FILLER_0_0_609
*1883 FILLER_0_0_615
*1884 FILLER_0_0_617
*1885 FILLER_0_0_621
*1886 FILLER_0_0_9
*1887 FILLER_0_0_93
*1888 FILLER_0_100_109
*1889 FILLER_0_100_121
*1890 FILLER_0_100_133
*1891 FILLER_0_100_139
*1892 FILLER_0_100_141
*1893 FILLER_0_100_15
*1894 FILLER_0_100_153
*1895 FILLER_0_100_165
*1896 FILLER_0_100_177
*1897 FILLER_0_100_189
*1898 FILLER_0_100_195
*1899 FILLER_0_100_197
*1900 FILLER_0_100_209
*1901 FILLER_0_100_221
*1902 FILLER_0_100_233
*1903 FILLER_0_100_245
*1904 FILLER_0_100_251
*1905 FILLER_0_100_253
*1906 FILLER_0_100_265
*1907 FILLER_0_100_27
*1908 FILLER_0_100_277
*1909 FILLER_0_100_289
*1910 FILLER_0_100_29
*1911 FILLER_0_100_3
*1912 FILLER_0_100_301
*1913 FILLER_0_100_307
*1914 FILLER_0_100_309
*1915 FILLER_0_100_321
*1916 FILLER_0_100_333
*1917 FILLER_0_100_345
*1918 FILLER_0_100_357
*1919 FILLER_0_100_363
*1920 FILLER_0_100_365
*1921 FILLER_0_100_377
*1922 FILLER_0_100_389
*1923 FILLER_0_100_401
*1924 FILLER_0_100_41
*1925 FILLER_0_100_413
*1926 FILLER_0_100_419
*1927 FILLER_0_100_421
*1928 FILLER_0_100_433
*1929 FILLER_0_100_445
*1930 FILLER_0_100_457
*1931 FILLER_0_100_469
*1932 FILLER_0_100_475
*1933 FILLER_0_100_477
*1934 FILLER_0_100_489
*1935 FILLER_0_100_501
*1936 FILLER_0_100_513
*1937 FILLER_0_100_525
*1938 FILLER_0_100_53
*1939 FILLER_0_100_531
*1940 FILLER_0_100_533
*1941 FILLER_0_100_545
*1942 FILLER_0_100_557
*1943 FILLER_0_100_569
*1944 FILLER_0_100_581
*1945 FILLER_0_100_587
*1946 FILLER_0_100_589
*1947 FILLER_0_100_601
*1948 FILLER_0_100_613
*1949 FILLER_0_100_65
*1950 FILLER_0_100_77
*1951 FILLER_0_100_83
*1952 FILLER_0_100_85
*1953 FILLER_0_100_97
*1954 FILLER_0_101_109
*1955 FILLER_0_101_113
*1956 FILLER_0_101_125
*1957 FILLER_0_101_137
*1958 FILLER_0_101_141
*1959 FILLER_0_101_15
*1960 FILLER_0_101_153
*1961 FILLER_0_101_165
*1962 FILLER_0_101_169
*1963 FILLER_0_101_181
*1964 FILLER_0_101_193
*1965 FILLER_0_101_197
*1966 FILLER_0_101_209
*1967 FILLER_0_101_221
*1968 FILLER_0_101_225
*1969 FILLER_0_101_237
*1970 FILLER_0_101_249
*1971 FILLER_0_101_253
*1972 FILLER_0_101_265
*1973 FILLER_0_101_27
*1974 FILLER_0_101_277
*1975 FILLER_0_101_281
*1976 FILLER_0_101_29
*1977 FILLER_0_101_293
*1978 FILLER_0_101_3
*1979 FILLER_0_101_305
*1980 FILLER_0_101_309
*1981 FILLER_0_101_321
*1982 FILLER_0_101_333
*1983 FILLER_0_101_337
*1984 FILLER_0_101_349
*1985 FILLER_0_101_361
*1986 FILLER_0_101_365
*1987 FILLER_0_101_377
*1988 FILLER_0_101_389
*1989 FILLER_0_101_393
*1990 FILLER_0_101_405
*1991 FILLER_0_101_41
*1992 FILLER_0_101_417
*1993 FILLER_0_101_421
*1994 FILLER_0_101_433
*1995 FILLER_0_101_445
*1996 FILLER_0_101_449
*1997 FILLER_0_101_461
*1998 FILLER_0_101_473
*1999 FILLER_0_101_477
*2000 FILLER_0_101_489
*2001 FILLER_0_101_501
*2002 FILLER_0_101_505
*2003 FILLER_0_101_517
*2004 FILLER_0_101_529
*2005 FILLER_0_101_53
*2006 FILLER_0_101_533
*2007 FILLER_0_101_545
*2008 FILLER_0_101_557
*2009 FILLER_0_101_561
*2010 FILLER_0_101_57
*2011 FILLER_0_101_573
*2012 FILLER_0_101_585
*2013 FILLER_0_101_589
*2014 FILLER_0_101_601
*2015 FILLER_0_101_613
*2016 FILLER_0_101_617
*2017 FILLER_0_101_69
*2018 FILLER_0_101_81
*2019 FILLER_0_101_85
*2020 FILLER_0_101_97
*2021 FILLER_0_10_103
*2022 FILLER_0_10_107
*2023 FILLER_0_10_119
*2024 FILLER_0_10_130
*2025 FILLER_0_10_138
*2026 FILLER_0_10_141
*2027 FILLER_0_10_149
*2028 FILLER_0_10_15
*2029 FILLER_0_10_163
*2030 FILLER_0_10_171
*2031 FILLER_0_10_180
*2032 FILLER_0_10_192
*2033 FILLER_0_10_197
*2034 FILLER_0_10_206
*2035 FILLER_0_10_218
*2036 FILLER_0_10_229
*2037 FILLER_0_10_237
*2038 FILLER_0_10_246
*2039 FILLER_0_10_253
*2040 FILLER_0_10_265
*2041 FILLER_0_10_27
*2042 FILLER_0_10_277
*2043 FILLER_0_10_289
*2044 FILLER_0_10_29
*2045 FILLER_0_10_295
*2046 FILLER_0_10_3
*2047 FILLER_0_10_304
*2048 FILLER_0_10_317
*2049 FILLER_0_10_326
*2050 FILLER_0_10_346
*2051 FILLER_0_10_363
*2052 FILLER_0_10_365
*2053 FILLER_0_10_371
*2054 FILLER_0_10_375
*2055 FILLER_0_10_381
*2056 FILLER_0_10_384
*2057 FILLER_0_10_395
*2058 FILLER_0_10_407
*2059 FILLER_0_10_419
*2060 FILLER_0_10_421
*2061 FILLER_0_10_429
*2062 FILLER_0_10_436
*2063 FILLER_0_10_448
*2064 FILLER_0_10_460
*2065 FILLER_0_10_472
*2066 FILLER_0_10_477
*2067 FILLER_0_10_489
*2068 FILLER_0_10_501
*2069 FILLER_0_10_513
*2070 FILLER_0_10_525
*2071 FILLER_0_10_531
*2072 FILLER_0_10_533
*2073 FILLER_0_10_545
*2074 FILLER_0_10_557
*2075 FILLER_0_10_569
*2076 FILLER_0_10_581
*2077 FILLER_0_10_587
*2078 FILLER_0_10_589
*2079 FILLER_0_10_601
*2080 FILLER_0_10_613